!This soil file is created by DSSAT translator tool on Wed Feb 20 16:18:32 EST 2013.
*SOILS: AgMIP soil file; 

!The ACE ID is N/A.
!This soil data is used for the experiment of UFGA8201_1.
!
*01MZ910014  Gainesville -99     180 Millhopper Fine Sand
@SITE        COUNTRY          LAT     LONG SCS FAMILY
 Gainesville USA             29.63  -82.37 Loamy,silic,hyperth Arenic Paleudult
@ SCOM  SALB  SLU1  SLDR  SLRO  SLNF  SLPF  SMHB  SMPX  SMKE
   -99   .18     2   .65    60     1   .92 IB001 IB001 IB001
@  SLB  SLMH  SLLL  SDUL  SSAT  SRGF  SSKS  SBDM  SLOC  SLCL  SLSI  SLCF  SLNI  SLHW  SLHB  SCEC  SADC
     5   -99  .026  .096   .23     1   -99   1.3     2   -99   -99   -99   -99   -99   -99    20   -99
    15   -99  .025  .086   .23     1   -99   1.3     1   -99   -99   -99   -99   -99   -99   -99   -99
    30   -99  .025  .086   .23    .7   -99   1.4     1   -99   -99   -99   -99   -99   -99   -99   -99
    60   -99  .025  .086   .23    .3   -99   1.4    .5   -99   -99   -99   -99   -99   -99   -99   -99
    90   -99  .028   .09   .23   .05   -99  1.45    .1   -99   -99   -99   -99   -99   -99   -99   -99
   120   -99  .028   .09   .23   .03   -99  1.45    .1   -99   -99   -99   -99   -99   -99   -99   -99
   150   -99  .029   .13   .23  .002   -99  1.45   .04   -99   -99   -99   -99   -99   -99   -99   -99
   180   -99   .07  .258   .36     0   -99   1.2   .24   -99   -99   -99   -99   -99   -99   -99   -99

