*SOILS: AgMIP soil file

*IBSB910015  SCS         S       180 Millhopper Fine Sand
@SITE        COUNTRY          LAT     LONG SCS FAMILY
 Gainesville USA             29.63  -82.37 Loamy,silic,hyperth Gross. Paleudults
@ SCOM  SALB  SLU1  SLDR  SLRO  SLNF  SLPF  SMHB  SMPX  SMKE
   -99   .18     5    .5    66     1   .92 IB001 IB001 IB001
@  SLB  SLMH  SLLL  SDUL  SSAT  SRGF  SSKS  SBDM  SLOC  SLCL  SLSI  SLCF  SLNI  SLHW  SLHB  SCEC  SADC
     5   -99  .023  .086   .23     1   7.4  1.36    .9    .9  11.8   -99   -99   5.3   -99   -99   -99
    15   -99  .023  .086   .23     1   7.4   1.4   .69    .9  11.8   -99   -99   5.4   -99   -99   -99
    30   -99  .023  .086   .23  .498  15.8  1.46   .28   4.6   6.4   -99   -99   5.7   -99   -99   -99
    45   -99  .023  .086   .23  .294    28  1.46    .2   5.8   5.4   -99   -99   5.8   -99   -99   -99
    60   -99  .023  .086   .23  .294    28  1.47    .2   5.8   5.4   -99   -99   5.8   -99   -99   -99
    90   -99  .021  .076   .23   .38  27.6  1.43   .09   9.6   4.2   -99   -99   5.9   -99   -99   -99
   120   -99   .02  .076   .23  .133  17.5  1.48   .03   9.6   4.2   -99   -99   5.9   -99   -99   -99
   150   -99  .027   .13   .23  .062    .3  1.57   .03   8.3   3.6   -99   -99   5.9   -99   -99   -99
   180   -99   .07  .258   .36  .031    .1  1.79   .03   8.3   3.6   -99   -99   5.9   -99   -99   -99

*IBMZ910014  Gainesville -99     180 Millhopper Fine Sand
@SITE        COUNTRY          LAT     LONG SCS FAMILY
 Gainesville USA             29.63  -82.37 Loamy,silic,hyperth Arenic Paleudult
@ SCOM  SALB  SLU1  SLDR  SLRO  SLNF  SLPF  SMHB  SMPX  SMKE
   -99   .18     2   .65    60     1   .92 IB001 IB001 IB001
@  SLB  SLMH  SLLL  SDUL  SSAT  SRGF  SSKS  SBDM  SLOC  SLCL  SLSI  SLCF  SLNI  SLHW  SLHB  SCEC  SADC
     5   -99  .026  .096   .23     1   -99   1.3     2   -99   -99   -99   -99   -99   -99    20   -99
    15   -99  .025  .086   .23     1   -99   1.3     1   -99   -99   -99   -99   -99   -99   -99   -99
    30   -99  .025  .086   .23    .7   -99   1.4     1   -99   -99   -99   -99   -99   -99   -99   -99
    60   -99  .025  .086   .23    .3   -99   1.4    .5   -99   -99   -99   -99   -99   -99   -99   -99
    90   -99  .028   .09   .23   .05   -99  1.45    .1   -99   -99   -99   -99   -99   -99   -99   -99
   120   -99  .028   .09   .23   .03   -99  1.45    .1   -99   -99   -99   -99   -99   -99   -99   -99
   150   -99  .029   .13   .23  .002   -99  1.45   .04   -99   -99   -99   -99   -99   -99   -99   -99
   180   -99   .07  .258   .36     0   -99   1.2   .24   -99   -99   -99   -99   -99   -99   -99   -99
